/*--------------------------------*- C++ -*----------------------------------*\
  =========                 |
  \\      /  F ield         | OpenFOAM: The Open Source CFD Toolbox
   \\    /   O peration     | Website:  https://openfoam.org
    \\  /    A nd           | Version:  10
     \\/     M anipulation  |
\*---------------------------------------------------------------------------*/
FoamFile
{
    format      ascii;
    class       dictionary;
    object      blockMeshDict;
}

// * * * * * * * * * * * * * * * * * * * * * * * * * * * * * * * * * * * * * //

convertToMeters 1;

vertices
(
    (-3 -5 0)
    (3 -5 0)
    (3  15 0)
    (-3  15 0)
    (-3 -5 5)
    (3 -5 5)
    (3  15 5)
    (-3  15 5)
);

blocks
(
    hex (0 1 2 3 4 5 6 7) (20 8 8) simpleGrading (1 1 1)
);

boundary
(
    frontAndBack
    {
        type patch;
        faces
        (
        
          (0 4 7 3)
          (2 6 5 1)
          
            
        );
    }
    inlet
    {
        type patch;
        faces
        (
         (1 5 4 0)
        );
    }
    outlet
    {
        type patch;
        faces
        (
         (3 7 6 2)
           
        );
    }
    lowerWall
    {
        type wall;
        faces
        (
            (0 3 2 1)
        );
    }
    upperWall
    {
        type patch;
        faces
        (
            (4 5 6 7)
        );
    }
);

// ************************************************************************* //
